Circuit: * C:\Fran\ITBA\Electronica 2\TPs-E2\Fuente_regulada_V2\Simulación\Fuente regulada.asc

Direct Newton iteration failed to find .op point.  (Use ".option noopiter" to skip.)
Starting Gmin stepping
Increasing initial diagonal Gmin to 100
Gmin = 100
vernier = 0.5
vernier = 0.25
Gmin = 30.8405
vernier = 0.125
vernier = 0.0625
vernier = 0.03125
vernier = 0.015625
Gmin = 29.7895
vernier = 0.0078125
vernier = 0.00390625
vernier = 0.00195313
vernier = 0.000976563
Gmin = 29.8549
vernier = 0.000488281
Gmin = 0
Gmin stepping succeeded in finding the operating point.


Date: Mon Apr 25 20:02:18 2022
Total elapsed time: 0.397 seconds.

tnom = 27
temp = 27
method = modified trap
totiter = 45543
traniter = 43884
tranpoints = 20018
accept = 20018
rejected = 0
matrix size = 43
fillins = 82
solver = Normal
Matrix Compiler1: 6.21 KB object code size  0.9/0.4/[0.3]
Matrix Compiler2: off  [0.3]/0.6/0.4

