Circuit: * C:\Fran\ITBA\Electronica 2\TPs-E2\Fuente_regulada_V2\Simulación\Fuente regulada.asc

Direct Newton iteration failed to find .op point.  (Use ".option noopiter" to skip.)
Starting Gmin stepping
Gmin = 10
vernier = 0.5
vernier = 0.25
vernier = 0.125
Gmin = 5.35425
vernier = 0.0625
vernier = 0.03125
vernier = 0.015625
vernier = 0.0078125
Gmin = 5.15175
vernier = 0.00390625
vernier = 0.00195313
vernier = 0.000976563
vernier = 0.000488281
Gmin = 5.1392
Gmin = 0
Gmin stepping failed

Starting source stepping with srcstepmethod=0
Source Step = 3.0303%
Source Step = 33.3333%
Source Step = 63.6364%
Source Step = 93.9394%
Source stepping succeeded in finding the operating point.

.step x=1e-018
.step x=0.1
.step x=0.2
.step x=0.3
.step x=0.4
.step x=0.5
.step x=0.6
.step x=0.7
.step x=0.8
.step x=0.9
.step x=1
.step x=1.1
.step x=1.2
.step x=1.3
.step x=1.4
.step x=1.5
.step x=1.6
.step x=1.7
.step x=1.8
.step x=1.9
.step x=2
.step x=2.1
.step x=2.2
.step x=2.3
.step x=2.4
.step x=2.5
.step x=2.6
.step x=2.7
.step x=2.8
.step x=2.9
.step x=3
.step x=3.1
.step x=3.2
.step x=3.3
.step x=3.4
.step x=3.5
.step x=3.6
.step x=3.7
.step x=3.8
.step x=3.9
.step x=4
.step x=4.1
.step x=4.2
.step x=4.3
.step x=4.4
.step x=4.5
.step x=4.6
.step x=4.7
.step x=4.8
.step x=4.9
.step x=5
.step x=5.1
.step x=5.2
.step x=5.3
.step x=5.4
.step x=5.5
.step x=5.6
.step x=5.7
.step x=5.8
.step x=5.9
.step x=6
.step x=6.1
.step x=6.2
.step x=6.3
.step x=6.4
.step x=6.5
.step x=6.6
.step x=6.7
.step x=6.8
.step x=6.9
.step x=7
.step x=7.1
.step x=7.2
.step x=7.3
.step x=7.4
.step x=7.5
.step x=7.6
.step x=7.7
.step x=7.8
.step x=7.9
.step x=8
.step x=8.1
.step x=8.2
.step x=8.3
.step x=8.4
.step x=8.5
.step x=8.6
.step x=8.7
.step x=8.8
.step x=8.9
.step x=9
.step x=9.1
.step x=9.2
.step x=9.3
.step x=9.4
.step x=9.5
.step x=9.6
.step x=9.7
.step x=9.8
.step x=9.9
.step x=10


Measurement: vo
  step	AVG(v(vo))	FROM	TO
     1	9.76358e-019	0	0.1
     2	0.0979549	0	0.1
     3	0.196552	0	0.1
     4	0.295798	0	0.1
     5	0.3957	0	0.1
     6	0.496262	0	0.1
     7	0.597493	0	0.1
     8	0.699399	0	0.1
     9	0.801986	0	0.1
    10	0.905262	0	0.1
    11	1.00923	0	0.1
    12	1.1139	0	0.1
    13	1.21929	0	0.1
    14	1.32539	0	0.1
    15	1.43221	0	0.1
    16	1.53976	0	0.1
    17	1.64805	0	0.1
    18	1.75709	0	0.1
    19	1.86688	0	0.1
    20	1.97743	0	0.1
    21	2.08876	0	0.1
    22	2.20085	0	0.1
    23	2.31374	0	0.1
    24	2.42742	0	0.1
    25	2.5419	0	0.1
    26	2.65719	0	0.1
    27	2.7733	0	0.1
    28	2.89023	0	0.1
    29	3.00801	0	0.1
    30	3.12662	0	0.1
    31	3.24609	0	0.1
    32	3.36643	0	0.1
    33	3.48764	0	0.1
    34	3.60973	0	0.1
    35	3.73271	0	0.1
    36	3.85659	0	0.1
    37	3.98138	0	0.1
    38	4.10709	0	0.1
    39	4.23373	0	0.1
    40	4.36132	0	0.1
    41	4.48985	0	0.1
    42	4.61935	0	0.1
    43	4.74981	0	0.1
    44	4.88127	0	0.1
    45	5.01371	0	0.1
    46	5.14716	0	0.1
    47	5.28163	0	0.1
    48	5.41712	0	0.1
    49	5.55365	0	0.1
    50	5.69123	0	0.1
    51	5.82988	0	0.1
    52	5.9696	0	0.1
    53	6.1104	0	0.1
    54	6.2523	0	0.1
    55	6.39532	0	0.1
    56	6.53946	0	0.1
    57	6.68473	0	0.1
    58	6.83116	0	0.1
    59	6.97875	0	0.1
    60	7.12751	0	0.1
    61	7.27746	0	0.1
    62	7.42862	0	0.1
    63	7.581	0	0.1
    64	7.7346	0	0.1
    65	7.88945	0	0.1
    66	8.04557	0	0.1
    67	8.20295	0	0.1
    68	8.36163	0	0.1
    69	8.52161	0	0.1
    70	8.6829	0	0.1
    71	8.84549	0	0.1
    72	9.00939	0	0.1
    73	9.17461	0	0.1
    74	9.34117	0	0.1
    75	9.50908	0	0.1
    76	9.67835	0	0.1
    77	9.84897	0	0.1
    78	10.021	0	0.1
    79	10.1943	0	0.1
    80	10.369	0	0.1
    81	10.5449	0	0.1
    82	10.7219	0	0.1
    83	10.8995	0	0.1
    84	11.0725	0	0.1
    85	11.0897	0	0.1
    86	11.0897	0	0.1
    87	11.0897	0	0.1
    88	11.0897	0	0.1
    89	11.0897	0	0.1
    90	11.0897	0	0.1
    91	11.0897	0	0.1
    92	11.0897	0	0.1
    93	11.0897	0	0.1
    94	11.0897	0	0.1
    95	11.0897	0	0.1
    96	11.0897	0	0.1
    97	11.0897	0	0.1
    98	11.0897	0	0.1
    99	11.0897	0	0.1
   100	11.0897	0	0.1
   101	11.0897	0	0.1

Measurement: il
  step	AVG(i(rl))	FROM	TO
     1	0.976358	0	0.1
     2	0.979549	0	0.1
     3	0.982761	0	0.1
     4	0.985995	0	0.1
     5	0.989249	0	0.1
     6	0.992525	0	0.1
     7	0.995822	0	0.1
     8	0.999141	0	0.1
     9	1.00248	0	0.1
    10	1.00585	0	0.1
    11	1.00923	0	0.1
    12	1.01264	0	0.1
    13	1.01607	0	0.1
    14	1.01953	0	0.1
    15	1.02301	0	0.1
    16	1.02651	0	0.1
    17	1.03003	0	0.1
    18	1.03358	0	0.1
    19	1.03716	0	0.1
    20	1.04075	0	0.1
    21	1.04438	0	0.1
    22	1.04803	0	0.1
    23	1.0517	0	0.1
    24	1.0554	0	0.1
    25	1.05912	0	0.1
    26	1.06287	0	0.1
    27	1.06665	0	0.1
    28	1.07046	0	0.1
    29	1.07429	0	0.1
    30	1.07815	0	0.1
    31	1.08203	0	0.1
    32	1.08594	0	0.1
    33	1.08989	0	0.1
    34	1.09386	0	0.1
    35	1.09785	0	0.1
    36	1.10188	0	0.1
    37	1.10594	0	0.1
    38	1.11002	0	0.1
    39	1.11414	0	0.1
    40	1.11829	0	0.1
    41	1.12246	0	0.1
    42	1.12667	0	0.1
    43	1.13091	0	0.1
    44	1.13518	0	0.1
    45	1.13948	0	0.1
    46	1.14381	0	0.1
    47	1.14818	0	0.1
    48	1.15258	0	0.1
    49	1.15701	0	0.1
    50	1.16148	0	0.1
    51	1.16598	0	0.1
    52	1.17051	0	0.1
    53	1.17508	0	0.1
    54	1.17968	0	0.1
    55	1.18432	0	0.1
    56	1.18899	0	0.1
    57	1.1937	0	0.1
    58	1.19845	0	0.1
    59	1.20323	0	0.1
    60	1.20805	0	0.1
    61	1.21291	0	0.1
    62	1.21781	0	0.1
    63	1.22274	0	0.1
    64	1.22771	0	0.1
    65	1.23273	0	0.1
    66	1.23778	0	0.1
    67	1.24287	0	0.1
    68	1.248	0	0.1
    69	1.25318	0	0.1
    70	1.25839	0	0.1
    71	1.26364	0	0.1
    72	1.26893	0	0.1
    73	1.27425	0	0.1
    74	1.27961	0	0.1
    75	1.28501	0	0.1
    76	1.29045	0	0.1
    77	1.29592	0	0.1
    78	1.30142	0	0.1
    79	1.30696	0	0.1
    80	1.31253	0	0.1
    81	1.31811	0	0.1
    82	1.32369	0	0.1
    83	1.3292	0	0.1
    84	1.33404	0	0.1
    85	1.3202	0	0.1
    86	1.30467	0	0.1
    87	1.2895	0	0.1
    88	1.27467	0	0.1
    89	1.26019	0	0.1
    90	1.24603	0	0.1
    91	1.23219	0	0.1
    92	1.21865	0	0.1
    93	1.2054	0	0.1
    94	1.19244	0	0.1
    95	1.17976	0	0.1
    96	1.16734	0	0.1
    97	1.15518	0	0.1
    98	1.14327	0	0.1
    99	1.1316	0	0.1
   100	1.12017	0	0.1
   101	1.10897	0	0.1

Measurement: ic
  step	AVG(ic(q3))	FROM	TO
     1	0.0255028	0	0.1
     2	0.0255017	0	0.1
     3	0.0255007	0	0.1
     4	0.0254995	0	0.1
     5	0.0254984	0	0.1
     6	0.0254973	0	0.1
     7	0.0254961	0	0.1
     8	0.0254949	0	0.1
     9	0.0254937	0	0.1
    10	0.0254925	0	0.1
    11	0.0254912	0	0.1
    12	0.02549	0	0.1
    13	0.0254887	0	0.1
    14	0.0254873	0	0.1
    15	0.025486	0	0.1
    16	0.0254846	0	0.1
    17	0.0254832	0	0.1
    18	0.0254818	0	0.1
    19	0.0254804	0	0.1
    20	0.0254789	0	0.1
    21	0.0254774	0	0.1
    22	0.0254758	0	0.1
    23	0.0254743	0	0.1
    24	0.0254727	0	0.1
    25	0.0254711	0	0.1
    26	0.0254694	0	0.1
    27	0.0254677	0	0.1
    28	0.025466	0	0.1
    29	0.0254642	0	0.1
    30	0.0254624	0	0.1
    31	0.0254606	0	0.1
    32	0.0254587	0	0.1
    33	0.0254568	0	0.1
    34	0.0254548	0	0.1
    35	0.0254528	0	0.1
    36	0.0254507	0	0.1
    37	0.0254486	0	0.1
    38	0.0254465	0	0.1
    39	0.0254443	0	0.1
    40	0.025442	0	0.1
    41	0.0254398	0	0.1
    42	0.0254374	0	0.1
    43	0.025435	0	0.1
    44	0.0254325	0	0.1
    45	0.02543	0	0.1
    46	0.0254274	0	0.1
    47	0.0254248	0	0.1
    48	0.0254221	0	0.1
    49	0.0254193	0	0.1
    50	0.0254164	0	0.1
    51	0.0254135	0	0.1
    52	0.0254105	0	0.1
    53	0.0254074	0	0.1
    54	0.0254042	0	0.1
    55	0.025401	0	0.1
    56	0.0253976	0	0.1
    57	0.0253942	0	0.1
    58	0.0253907	0	0.1
    59	0.0253871	0	0.1
    60	0.0253833	0	0.1
    61	0.0253795	0	0.1
    62	0.0253756	0	0.1
    63	0.0253715	0	0.1
    64	0.0253673	0	0.1
    65	0.025363	0	0.1
    66	0.0253586	0	0.1
    67	0.025354	0	0.1
    68	0.0253493	0	0.1
    69	0.0253444	0	0.1
    70	0.0253394	0	0.1
    71	0.0253338	0	0.1
    72	0.0253277	0	0.1
    73	0.0253211	0	0.1
    74	0.0253139	0	0.1
    75	0.0253062	0	0.1
    76	0.0252978	0	0.1
    77	0.0252888	0	0.1
    78	0.0252789	0	0.1
    79	0.025268	0	0.1
    80	0.0252557	0	0.1
    81	0.0252415	0	0.1
    82	0.0252241	0	0.1
    83	0.0251995	0	0.1
    84	0.02513	0	0.1
    85	0.0239132	0	0.1
    86	0.0225945	0	0.1
    87	0.0213009	0	0.1
    88	0.0200324	0	0.1
    89	0.0187895	0	0.1
    90	0.0175724	0	0.1
    91	0.0163817	0	0.1
    92	0.0152181	0	0.1
    93	0.0140824	0	0.1
    94	0.0129758	0	0.1
    95	0.0118994	0	0.1
    96	0.0108548	0	0.1
    97	0.00984391	0	0.1
    98	0.00886877	0	0.1
    99	0.0079319	0	0.1
   100	0.00703613	0	0.1
   101	0.00618469	0	0.1

Measurement: vbe
  step	AVG(v(vb,vo))	FROM	TO
     1	0.71632	0	0.1
     2	0.716317	0	0.1
     3	0.716313	0	0.1
     4	0.716309	0	0.1
     5	0.716305	0	0.1
     6	0.716301	0	0.1
     7	0.716297	0	0.1
     8	0.716292	0	0.1
     9	0.716288	0	0.1
    10	0.716284	0	0.1
    11	0.71628	0	0.1
    12	0.716275	0	0.1
    13	0.716271	0	0.1
    14	0.716267	0	0.1
    15	0.716262	0	0.1
    16	0.716258	0	0.1
    17	0.716253	0	0.1
    18	0.716248	0	0.1
    19	0.716244	0	0.1
    20	0.716239	0	0.1
    21	0.716234	0	0.1
    22	0.716229	0	0.1
    23	0.716224	0	0.1
    24	0.716219	0	0.1
    25	0.716214	0	0.1
    26	0.716209	0	0.1
    27	0.716204	0	0.1
    28	0.716198	0	0.1
    29	0.716193	0	0.1
    30	0.716187	0	0.1
    31	0.716182	0	0.1
    32	0.716176	0	0.1
    33	0.716171	0	0.1
    34	0.716165	0	0.1
    35	0.716159	0	0.1
    36	0.716153	0	0.1
    37	0.716147	0	0.1
    38	0.716141	0	0.1
    39	0.716135	0	0.1
    40	0.716128	0	0.1
    41	0.716122	0	0.1
    42	0.716115	0	0.1
    43	0.716109	0	0.1
    44	0.716102	0	0.1
    45	0.716095	0	0.1
    46	0.716088	0	0.1
    47	0.716081	0	0.1
    48	0.716073	0	0.1
    49	0.716066	0	0.1
    50	0.716059	0	0.1
    51	0.716051	0	0.1
    52	0.716043	0	0.1
    53	0.716035	0	0.1
    54	0.716027	0	0.1
    55	0.716019	0	0.1
    56	0.716011	0	0.1
    57	0.716002	0	0.1
    58	0.715993	0	0.1
    59	0.715984	0	0.1
    60	0.715975	0	0.1
    61	0.715966	0	0.1
    62	0.715956	0	0.1
    63	0.715947	0	0.1
    64	0.715937	0	0.1
    65	0.715927	0	0.1
    66	0.715916	0	0.1
    67	0.715906	0	0.1
    68	0.715895	0	0.1
    69	0.715884	0	0.1
    70	0.715873	0	0.1
    71	0.71586	0	0.1
    72	0.715847	0	0.1
    73	0.715834	0	0.1
    74	0.715819	0	0.1
    75	0.715803	0	0.1
    76	0.715787	0	0.1
    77	0.71577	0	0.1
    78	0.715751	0	0.1
    79	0.71573	0	0.1
    80	0.715708	0	0.1
    81	0.715683	0	0.1
    82	0.715653	0	0.1
    83	0.715613	0	0.1
    84	0.715507	0	0.1
    85	0.713706	0	0.1
    86	0.711676	0	0.1
    87	0.709596	0	0.1
    88	0.707462	0	0.1
    89	0.705267	0	0.1
    90	0.703005	0	0.1
    91	0.700669	0	0.1
    92	0.698251	0	0.1
    93	0.695742	0	0.1
    94	0.693132	0	0.1
    95	0.69041	0	0.1
    96	0.687561	0	0.1
    97	0.684573	0	0.1
    98	0.681427	0	0.1
    99	0.678106	0	0.1
   100	0.674587	0	0.1
   101	0.670847	0	0.1

Measurement: vce
  step	AVG(v(comp,vo))	FROM	TO
     1	2.27721	0	0.1
     2	2.28135	0	0.1
     3	2.28551	0	0.1
     4	2.28971	0	0.1
     5	2.29394	0	0.1
     6	2.2982	0	0.1
     7	2.30249	0	0.1
     8	2.30681	0	0.1
     9	2.31116	0	0.1
    10	2.31555	0	0.1
    11	2.31996	0	0.1
    12	2.32441	0	0.1
    13	2.32889	0	0.1
    14	2.33341	0	0.1
    15	2.33796	0	0.1
    16	2.34255	0	0.1
    17	2.34717	0	0.1
    18	2.35182	0	0.1
    19	2.35651	0	0.1
    20	2.36124	0	0.1
    21	2.366	0	0.1
    22	2.3708	0	0.1
    23	2.37564	0	0.1
    24	2.38051	0	0.1
    25	2.38543	0	0.1
    26	2.39038	0	0.1
    27	2.39537	0	0.1
    28	2.4004	0	0.1
    29	2.40548	0	0.1
    30	2.41059	0	0.1
    31	2.41574	0	0.1
    32	2.42094	0	0.1
    33	2.42618	0	0.1
    34	2.43146	0	0.1
    35	2.43679	0	0.1
    36	2.44216	0	0.1
    37	2.44757	0	0.1
    38	2.45304	0	0.1
    39	2.45854	0	0.1
    40	2.4641	0	0.1
    41	2.4697	0	0.1
    42	2.47535	0	0.1
    43	2.48104	0	0.1
    44	2.48679	0	0.1
    45	2.49259	0	0.1
    46	2.49844	0	0.1
    47	2.50434	0	0.1
    48	2.51029	0	0.1
    49	2.51629	0	0.1
    50	2.52235	0	0.1
    51	2.52847	0	0.1
    52	2.53464	0	0.1
    53	2.54086	0	0.1
    54	2.54714	0	0.1
    55	2.55348	0	0.1
    56	2.55988	0	0.1
    57	2.56634	0	0.1
    58	2.57286	0	0.1
    59	2.57944	0	0.1
    60	2.58608	0	0.1
    61	2.59279	0	0.1
    62	2.59956	0	0.1
    63	2.60639	0	0.1
    64	2.6133	0	0.1
    65	2.62027	0	0.1
    66	2.6273	0	0.1
    67	2.63441	0	0.1
    68	2.64159	0	0.1
    69	2.64884	0	0.1
    70	2.65616	0	0.1
    71	2.66355	0	0.1
    72	2.67101	0	0.1
    73	2.67854	0	0.1
    74	2.68614	0	0.1
    75	2.69382	0	0.1
    76	2.70156	0	0.1
    77	2.70938	0	0.1
    78	2.71727	0	0.1
    79	2.72522	0	0.1
    80	2.73325	0	0.1
    81	2.74132	0	0.1
    82	2.74943	0	0.1
    83	2.75749	0	0.1
    84	2.76477	0	0.1
    85	2.74977	0	0.1
    86	2.73272	0	0.1
    87	2.71607	0	0.1
    88	2.6998	0	0.1
    89	2.6839	0	0.1
    90	2.66836	0	0.1
    91	2.65316	0	0.1
    92	2.63829	0	0.1
    93	2.62374	0	0.1
    94	2.60949	0	0.1
    95	2.59554	0	0.1
    96	2.58186	0	0.1
    97	2.56845	0	0.1
    98	2.5553	0	0.1
    99	2.54239	0	0.1
   100	2.52971	0	0.1
   101	2.51725	0	0.1

Measurement: vopamp
  step	AVG(v(comp))	FROM	TO
     1	2.27721	0	0.1
     2	2.3793	0	0.1
     3	2.48207	0	0.1
     4	2.58551	0	0.1
     5	2.68964	0	0.1
     6	2.79446	0	0.1
     7	2.89998	0	0.1
     8	3.00621	0	0.1
     9	3.11315	0	0.1
    10	3.22081	0	0.1
    11	3.32919	0	0.1
    12	3.43832	0	0.1
    13	3.54818	0	0.1
    14	3.6588	0	0.1
    15	3.77017	0	0.1
    16	3.88231	0	0.1
    17	3.99522	0	0.1
    18	4.10891	0	0.1
    19	4.22339	0	0.1
    20	4.33867	0	0.1
    21	4.45475	0	0.1
    22	4.57165	0	0.1
    23	4.68938	0	0.1
    24	4.80793	0	0.1
    25	4.92732	0	0.1
    26	5.04757	0	0.1
    27	5.16867	0	0.1
    28	5.29064	0	0.1
    29	5.41348	0	0.1
    30	5.53721	0	0.1
    31	5.66184	0	0.1
    32	5.78737	0	0.1
    33	5.91382	0	0.1
    34	6.04119	0	0.1
    35	6.16949	0	0.1
    36	6.29874	0	0.1
    37	6.42895	0	0.1
    38	6.56013	0	0.1
    39	6.69227	0	0.1
    40	6.82541	0	0.1
    41	6.95955	0	0.1
    42	7.09469	0	0.1
    43	7.23086	0	0.1
    44	7.36806	0	0.1
    45	7.5063	0	0.1
    46	7.6456	0	0.1
    47	7.78596	0	0.1
    48	7.92741	0	0.1
    49	8.06994	0	0.1
    50	8.21359	0	0.1
    51	8.35834	0	0.1
    52	8.50423	0	0.1
    53	8.65126	0	0.1
    54	8.79945	0	0.1
    55	8.9488	0	0.1
    56	9.09934	0	0.1
    57	9.25107	0	0.1
    58	9.40402	0	0.1
    59	9.55819	0	0.1
    60	9.71359	0	0.1
    61	9.87025	0	0.1
    62	10.0282	0	0.1
    63	10.1874	0	0.1
    64	10.3479	0	0.1
    65	10.5097	0	0.1
    66	10.6729	0	0.1
    67	10.8374	0	0.1
    68	11.0032	0	0.1
    69	11.1704	0	0.1
    70	11.3391	0	0.1
    71	11.509	0	0.1
    72	11.6804	0	0.1
    73	11.8532	0	0.1
    74	12.0273	0	0.1
    75	12.2029	0	0.1
    76	12.3799	0	0.1
    77	12.5584	0	0.1
    78	12.7382	0	0.1
    79	12.9195	0	0.1
    80	13.1022	0	0.1
    81	13.2862	0	0.1
    82	13.4713	0	0.1
    83	13.657	0	0.1
    84	13.8373	0	0.1
    85	13.8394	0	0.1
    86	13.8224	0	0.1
    87	13.8057	0	0.1
    88	13.7895	0	0.1
    89	13.7736	0	0.1
    90	13.758	0	0.1
    91	13.7428	0	0.1
    92	13.728	0	0.1
    93	13.7134	0	0.1
    94	13.6992	0	0.1
    95	13.6852	0	0.1
    96	13.6716	0	0.1
    97	13.6582	0	0.1
    98	13.645	0	0.1
    99	13.6321	0	0.1
   100	13.6194	0	0.1
   101	13.607	0	0.1

Measurement "iopamp" FAIL'ed

Measurement: v-
  step	AVG(v(v-))	FROM	TO
     1	-3.80842	0	0.1
     2	-3.77479	0	0.1
     3	-3.74093	0	0.1
     4	-3.70685	0	0.1
     5	-3.67254	0	0.1
     6	-3.63801	0	0.1
     7	-3.60324	0	0.1
     8	-3.56825	0	0.1
     9	-3.53302	0	0.1
    10	-3.49755	0	0.1
    11	-3.46185	0	0.1
    12	-3.4259	0	0.1
    13	-3.38972	0	0.1
    14	-3.35328	0	0.1
    15	-3.3166	0	0.1
    16	-3.27966	0	0.1
    17	-3.24248	0	0.1
    18	-3.20503	0	0.1
    19	-3.16733	0	0.1
    20	-3.12936	0	0.1
    21	-3.09113	0	0.1
    22	-3.05264	0	0.1
    23	-3.01387	0	0.1
    24	-2.97484	0	0.1
    25	-2.93552	0	0.1
    26	-2.89593	0	0.1
    27	-2.85606	0	0.1
    28	-2.8159	0	0.1
    29	-2.77546	0	0.1
    30	-2.73472	0	0.1
    31	-2.6937	0	0.1
    32	-2.65237	0	0.1
    33	-2.61075	0	0.1
    34	-2.56882	0	0.1
    35	-2.52659	0	0.1
    36	-2.48405	0	0.1
    37	-2.44119	0	0.1
    38	-2.39802	0	0.1
    39	-2.35453	0	0.1
    40	-2.31072	0	0.1
    41	-2.26658	0	0.1
    42	-2.22211	0	0.1
    43	-2.1773	0	0.1
    44	-2.13216	0	0.1
    45	-2.08668	0	0.1
    46	-2.04085	0	0.1
    47	-1.99467	0	0.1
    48	-1.94814	0	0.1
    49	-1.90125	0	0.1
    50	-1.85401	0	0.1
    51	-1.80639	0	0.1
    52	-1.75841	0	0.1
    53	-1.71006	0	0.1
    54	-1.66133	0	0.1
    55	-1.61221	0	0.1
    56	-1.56271	0	0.1
    57	-1.51282	0	0.1
    58	-1.46254	0	0.1
    59	-1.41185	0	0.1
    60	-1.36077	0	0.1
    61	-1.30927	0	0.1
    62	-1.25736	0	0.1
    63	-1.20503	0	0.1
    64	-1.15228	0	0.1
    65	-1.0991	0	0.1
    66	-1.04549	0	0.1
    67	-0.991439	0	0.1
    68	-0.936947	0	0.1
    69	-0.882007	0	0.1
    70	-0.826616	0	0.1
    71	-0.770778	0	0.1
    72	-0.714492	0	0.1
    73	-0.65775	0	0.1
    74	-0.60055	0	0.1
    75	-0.542887	0	0.1
    76	-0.484757	0	0.1
    77	-0.426161	0	0.1
    78	-0.367097	0	0.1
    79	-0.307569	0	0.1
    80	-0.247586	0	0.1
    81	-0.187171	0	0.1
    82	-0.12638	0	0.1
    83	-0.0653917	0	0.1
    84	-0.00597217	0	0.1
    85	-8.12814e-005	0	0.1
    86	-7.94674e-005	0	0.1
    87	-7.76883e-005	0	0.1
    88	-7.59443e-005	0	0.1
    89	-7.42357e-005	0	0.1
    90	-7.2563e-005	0	0.1
    91	-7.09265e-005	0	0.1
    92	-6.93273e-005	0	0.1
    93	-6.77664e-005	0	0.1
    94	-6.62451e-005	0	0.1
    95	-6.47651e-005	0	0.1
    96	-6.33283e-005	0	0.1
    97	-6.1937e-005	0	0.1
    98	-6.0594e-005	0	0.1
    99	-5.93024e-005	0	0.1
   100	-5.80659e-005	0	0.1
   101	-5.68889e-005	0	0.1


Date: Tue Apr 12 18:14:13 2022
Total elapsed time: 7.928 seconds.

tnom = 27
temp = 27
method = modified trap
totiter = 3984
traniter = 2408
tranpoints = 1205
accept = 1205
rejected = 0
matrix size = 43
fillins = 84
solver = Normal
Matrix Compiler1: 6.15 KB object code size  2.1/1.7/[1.7]
Matrix Compiler2: off  [0.4]/1.6/0.4

