Circuit: * C:\Fran\ITBA\Electronica 2\Fuente_regulada_V2\Fuente regulada.asc

Direct Newton iteration failed to find .op point.  (Use ".option noopiter" to skip.)
Starting Gmin stepping
Increasing initial diagonal Gmin to 100
Gmin = 100
vernier = 0.5
vernier = 0.25
Gmin = 30.8405
vernier = 0.125
vernier = 0.0625
vernier = 0.03125
vernier = 0.015625
Gmin = 29.7895
vernier = 0.0078125
vernier = 0.00390625
vernier = 0.00195313
vernier = 0.000976563
Gmin = 29.8549
vernier = 0.000488281
Gmin = 0
Gmin stepping succeeded in finding the operating point.

.step x=2
.step x=2.1
.step x=2.2
.step x=2.3
.step x=2.4
.step x=2.5
.step x=2.6
.step x=2.7
.step x=2.8
.step x=2.9
.step x=3
.step x=3.1
.step x=3.2
.step x=3.3
.step x=3.4
.step x=3.5
.step x=3.6
.step x=3.7
.step x=3.8
.step x=3.9
.step x=4
.step x=4.1
.step x=4.2
.step x=4.3
.step x=4.4
.step x=4.5
.step x=4.6
.step x=4.7
.step x=4.8
.step x=4.9
.step x=5
.step x=5.1
.step x=5.2
.step x=5.3
.step x=5.4
.step x=5.5
.step x=5.6
.step x=5.7
.step x=5.8
.step x=5.9
.step x=6
.step x=6.1
.step x=6.2
.step x=6.3
.step x=6.4
.step x=6.5
.step x=6.6
.step x=6.7
.step x=6.8
.step x=6.9
.step x=7
.step x=7.1
.step x=7.2
.step x=7.3
.step x=7.4
.step x=7.5
.step x=7.6
.step x=7.7
.step x=7.8
.step x=7.9
.step x=8
.step x=8.1
.step x=8.2
.step x=8.3
.step x=8.4
.step x=8.5
.step x=8.6
.step x=8.7
.step x=8.8
.step x=8.9
.step x=9
.step x=9.1
.step x=9.2
.step x=9.3
.step x=9.4
.step x=9.5
.step x=9.6
.step x=9.7
.step x=9.8
.step x=9.9
.step x=10
.step x=10.1
.step x=10.2
.step x=10.3
.step x=10.4
.step x=10.5
.step x=10.6
.step x=10.7
.step x=10.8
.step x=10.9
.step x=11
.step x=11.1
.step x=11.2
.step x=11.3
.step x=11.4
.step x=11.5
.step x=11.6
.step x=11.7
.step x=11.8
.step x=11.9
.step x=12
.step x=12.1
.step x=12.2
.step x=12.3
.step x=12.4
.step x=12.5
.step x=12.6
.step x=12.7
.step x=12.8
.step x=12.9
.step x=13
.step x=13.1
.step x=13.2
.step x=13.3
.step x=13.4
.step x=13.5
.step x=13.6
.step x=13.7
.step x=13.8
.step x=13.9
.step x=14
.step x=14.1
.step x=14.2
.step x=14.3
.step x=14.4
.step x=14.5
.step x=14.6
.step x=14.7
.step x=14.8
.step x=14.9
.step x=15
.step x=15.1
.step x=15.2
.step x=15.3
.step x=15.4
.step x=15.5
.step x=15.6
.step x=15.7
.step x=15.8
.step x=15.9
.step x=16
.step x=16.1
.step x=16.2
.step x=16.3
.step x=16.4
.step x=16.5
.step x=16.6
.step x=16.7
.step x=16.8
.step x=16.9
.step x=17
.step x=17.1
.step x=17.2
.step x=17.3
.step x=17.4
.step x=17.5
.step x=17.6
.step x=17.7
.step x=17.8
.step x=17.9
.step x=18
.step x=18.1
.step x=18.2
.step x=18.3
.step x=18.4
.step x=18.5
.step x=18.6
.step x=18.7
.step x=18.8
.step x=18.9
.step x=19
.step x=19.1
.step x=19.2
.step x=19.3
.step x=19.4
.step x=19.5
.step x=19.6
.step x=19.7
.step x=19.8
.step x=19.9
.step x=20


Measurement: vo
  step	AVG(v(vo))	FROM	TO
     1	2.08876	0	0.1
     2	2.20085	0	0.1
     3	2.31374	0	0.1
     4	2.42742	0	0.1
     5	2.5419	0	0.1
     6	2.65719	0	0.1
     7	2.7733	0	0.1
     8	2.89023	0	0.1
     9	3.00801	0	0.1
    10	3.12662	0	0.1
    11	3.24609	0	0.1
    12	3.36643	0	0.1
    13	3.48764	0	0.1
    14	3.60973	0	0.1
    15	3.73271	0	0.1
    16	3.85659	0	0.1
    17	3.98138	0	0.1
    18	4.10709	0	0.1
    19	4.23373	0	0.1
    20	4.36132	0	0.1
    21	4.48985	0	0.1
    22	4.61935	0	0.1
    23	4.74981	0	0.1
    24	4.88127	0	0.1
    25	5.01371	0	0.1
    26	5.14716	0	0.1
    27	5.28163	0	0.1
    28	5.41712	0	0.1
    29	5.55365	0	0.1
    30	5.69123	0	0.1
    31	5.82988	0	0.1
    32	5.9696	0	0.1
    33	6.1104	0	0.1
    34	6.2523	0	0.1
    35	6.39532	0	0.1
    36	6.53946	0	0.1
    37	6.68473	0	0.1
    38	6.83116	0	0.1
    39	6.97875	0	0.1
    40	7.12751	0	0.1
    41	7.27746	0	0.1
    42	7.42862	0	0.1
    43	7.581	0	0.1
    44	7.7346	0	0.1
    45	7.88945	0	0.1
    46	8.04557	0	0.1
    47	8.20295	0	0.1
    48	8.36163	0	0.1
    49	8.52161	0	0.1
    50	8.6829	0	0.1
    51	8.84549	0	0.1
    52	9.00939	0	0.1
    53	9.17461	0	0.1
    54	9.34117	0	0.1
    55	9.50908	0	0.1
    56	9.67835	0	0.1
    57	9.84897	0	0.1
    58	10.021	0	0.1
    59	10.1943	0	0.1
    60	10.369	0	0.1
    61	10.5449	0	0.1
    62	10.7219	0	0.1
    63	10.8995	0	0.1
    64	11.0725	0	0.1
    65	11.0897	0	0.1
    66	11.0897	0	0.1
    67	11.0897	0	0.1
    68	11.0897	0	0.1
    69	11.0897	0	0.1
    70	11.0897	0	0.1
    71	11.0897	0	0.1
    72	11.0897	0	0.1
    73	11.0897	0	0.1
    74	11.0897	0	0.1
    75	11.0897	0	0.1
    76	11.0897	0	0.1
    77	11.0897	0	0.1
    78	11.0897	0	0.1
    79	11.0897	0	0.1
    80	11.0897	0	0.1
    81	11.0897	0	0.1
    82	11.0897	0	0.1
    83	11.0897	0	0.1
    84	11.0897	0	0.1
    85	11.0897	0	0.1
    86	11.0897	0	0.1
    87	11.0897	0	0.1
    88	11.0897	0	0.1
    89	11.0897	0	0.1
    90	11.0897	0	0.1
    91	11.0897	0	0.1
    92	11.0897	0	0.1
    93	11.0897	0	0.1
    94	11.0897	0	0.1
    95	11.0897	0	0.1
    96	11.0897	0	0.1
    97	11.0897	0	0.1
    98	11.0897	0	0.1
    99	11.0897	0	0.1
   100	11.0897	0	0.1
   101	11.0897	0	0.1
   102	11.0897	0	0.1
   103	11.0897	0	0.1
   104	11.0897	0	0.1
   105	11.0897	0	0.1
   106	11.0897	0	0.1
   107	11.0898	0	0.1
   108	11.0898	0	0.1
   109	11.0898	0	0.1
   110	11.0898	0	0.1
   111	11.0898	0	0.1
   112	11.0898	0	0.1
   113	11.0898	0	0.1
   114	11.0898	0	0.1
   115	11.0898	0	0.1
   116	11.0898	0	0.1
   117	11.0898	0	0.1
   118	11.0898	0	0.1
   119	11.0898	0	0.1
   120	11.0898	0	0.1
   121	11.0898	0	0.1
   122	11.0898	0	0.1
   123	11.0898	0	0.1
   124	11.0898	0	0.1
   125	11.0898	0	0.1
   126	11.0898	0	0.1
   127	11.0898	0	0.1
   128	11.0898	0	0.1
   129	11.0898	0	0.1
   130	11.0898	0	0.1
   131	11.0898	0	0.1
   132	11.0898	0	0.1
   133	11.0898	0	0.1
   134	11.0898	0	0.1
   135	11.0898	0	0.1
   136	11.0898	0	0.1
   137	11.0898	0	0.1
   138	11.0898	0	0.1
   139	11.0898	0	0.1
   140	11.0898	0	0.1
   141	11.0898	0	0.1
   142	11.0898	0	0.1
   143	11.0898	0	0.1
   144	11.0898	0	0.1
   145	11.0898	0	0.1
   146	11.0898	0	0.1
   147	11.0898	0	0.1
   148	11.0898	0	0.1
   149	11.0898	0	0.1
   150	11.0898	0	0.1
   151	11.0898	0	0.1
   152	11.0898	0	0.1
   153	11.0898	0	0.1
   154	11.0898	0	0.1
   155	11.0898	0	0.1
   156	11.0898	0	0.1
   157	11.0898	0	0.1
   158	11.0898	0	0.1
   159	11.0898	0	0.1
   160	11.0898	0	0.1
   161	11.0898	0	0.1
   162	11.0898	0	0.1
   163	11.0898	0	0.1
   164	11.0898	0	0.1
   165	11.0898	0	0.1
   166	11.0898	0	0.1
   167	11.0898	0	0.1
   168	11.0898	0	0.1
   169	11.0898	0	0.1
   170	11.0898	0	0.1
   171	11.0898	0	0.1
   172	11.0898	0	0.1
   173	11.0898	0	0.1
   174	11.0898	0	0.1
   175	11.0898	0	0.1
   176	11.0898	0	0.1
   177	11.0898	0	0.1
   178	11.0898	0	0.1
   179	11.0898	0	0.1
   180	11.0898	0	0.1
   181	11.0898	0	0.1

Measurement: il
  step	AVG(i(rl))	FROM	TO
     1	1.04438	0	0.1
     2	1.04803	0	0.1
     3	1.0517	0	0.1
     4	1.0554	0	0.1
     5	1.05912	0	0.1
     6	1.06287	0	0.1
     7	1.06665	0	0.1
     8	1.07046	0	0.1
     9	1.07429	0	0.1
    10	1.07815	0	0.1
    11	1.08203	0	0.1
    12	1.08594	0	0.1
    13	1.08989	0	0.1
    14	1.09386	0	0.1
    15	1.09785	0	0.1
    16	1.10188	0	0.1
    17	1.10594	0	0.1
    18	1.11002	0	0.1
    19	1.11414	0	0.1
    20	1.11829	0	0.1
    21	1.12246	0	0.1
    22	1.12667	0	0.1
    23	1.13091	0	0.1
    24	1.13518	0	0.1
    25	1.13948	0	0.1
    26	1.14381	0	0.1
    27	1.14818	0	0.1
    28	1.15258	0	0.1
    29	1.15701	0	0.1
    30	1.16148	0	0.1
    31	1.16598	0	0.1
    32	1.17051	0	0.1
    33	1.17508	0	0.1
    34	1.17968	0	0.1
    35	1.18432	0	0.1
    36	1.18899	0	0.1
    37	1.1937	0	0.1
    38	1.19845	0	0.1
    39	1.20323	0	0.1
    40	1.20805	0	0.1
    41	1.21291	0	0.1
    42	1.21781	0	0.1
    43	1.22274	0	0.1
    44	1.22771	0	0.1
    45	1.23273	0	0.1
    46	1.23778	0	0.1
    47	1.24287	0	0.1
    48	1.248	0	0.1
    49	1.25318	0	0.1
    50	1.25839	0	0.1
    51	1.26364	0	0.1
    52	1.26893	0	0.1
    53	1.27425	0	0.1
    54	1.27961	0	0.1
    55	1.28501	0	0.1
    56	1.29045	0	0.1
    57	1.29592	0	0.1
    58	1.30142	0	0.1
    59	1.30696	0	0.1
    60	1.31253	0	0.1
    61	1.31811	0	0.1
    62	1.32369	0	0.1
    63	1.3292	0	0.1
    64	1.33404	0	0.1
    65	1.3202	0	0.1
    66	1.30467	0	0.1
    67	1.2895	0	0.1
    68	1.27467	0	0.1
    69	1.26019	0	0.1
    70	1.24603	0	0.1
    71	1.23219	0	0.1
    72	1.21865	0	0.1
    73	1.2054	0	0.1
    74	1.19244	0	0.1
    75	1.17976	0	0.1
    76	1.16734	0	0.1
    77	1.15518	0	0.1
    78	1.14327	0	0.1
    79	1.1316	0	0.1
    80	1.12017	0	0.1
    81	1.10897	0	0.1
    82	1.09799	0	0.1
    83	1.08723	0	0.1
    84	1.07667	0	0.1
    85	1.06632	0	0.1
    86	1.05617	0	0.1
    87	1.0462	0	0.1
    88	1.03642	0	0.1
    89	1.02683	0	0.1
    90	1.01741	0	0.1
    91	1.00816	0	0.1
    92	0.999076	0	0.1
    93	0.990156	0	0.1
    94	0.981394	0	0.1
    95	0.972785	0	0.1
    96	0.964326	0	0.1
    97	0.956013	0	0.1
    98	0.947842	0	0.1
    99	0.939809	0	0.1
   100	0.931912	0	0.1
   101	0.924146	0	0.1
   102	0.916508	0	0.1
   103	0.908996	0	0.1
   104	0.901606	0	0.1
   105	0.894335	0	0.1
   106	0.88718	0	0.1
   107	0.880139	0	0.1
   108	0.873209	0	0.1
   109	0.866387	0	0.1
   110	0.859671	0	0.1
   111	0.853058	0	0.1
   112	0.846546	0	0.1
   113	0.840133	0	0.1
   114	0.833816	0	0.1
   115	0.827593	0	0.1
   116	0.821463	0	0.1
   117	0.815423	0	0.1
   118	0.809471	0	0.1
   119	0.803605	0	0.1
   120	0.797824	0	0.1
   121	0.792125	0	0.1
   122	0.786507	0	0.1
   123	0.780968	0	0.1
   124	0.775507	0	0.1
   125	0.770122	0	0.1
   126	0.76481	0	0.1
   127	0.759572	0	0.1
   128	0.754405	0	0.1
   129	0.749308	0	0.1
   130	0.744279	0	0.1
   131	0.739317	0	0.1
   132	0.734421	0	0.1
   133	0.729589	0	0.1
   134	0.72482	0	0.1
   135	0.720114	0	0.1
   136	0.715468	0	0.1
   137	0.710882	0	0.1
   138	0.706354	0	0.1
   139	0.701883	0	0.1
   140	0.697469	0	0.1
   141	0.69311	0	0.1
   142	0.688805	0	0.1
   143	0.684553	0	0.1
   144	0.680353	0	0.1
   145	0.676204	0	0.1
   146	0.672106	0	0.1
   147	0.668057	0	0.1
   148	0.664057	0	0.1
   149	0.660104	0	0.1
   150	0.656198	0	0.1
   151	0.652338	0	0.1
   152	0.648524	0	0.1
   153	0.644753	0	0.1
   154	0.641026	0	0.1
   155	0.637342	0	0.1
   156	0.6337	0	0.1
   157	0.6301	0	0.1
   158	0.62654	0	0.1
   159	0.62302	0	0.1
   160	0.619539	0	0.1
   161	0.616097	0	0.1
   162	0.612694	0	0.1
   163	0.609327	0	0.1
   164	0.605998	0	0.1
   165	0.602704	0	0.1
   166	0.599446	0	0.1
   167	0.596223	0	0.1
   168	0.593035	0	0.1
   169	0.589881	0	0.1
   170	0.58676	0	0.1
   171	0.583671	0	0.1
   172	0.580615	0	0.1
   173	0.577591	0	0.1
   174	0.574599	0	0.1
   175	0.571637	0	0.1
   176	0.568705	0	0.1
   177	0.565804	0	0.1
   178	0.562932	0	0.1
   179	0.560089	0	0.1
   180	0.557274	0	0.1
   181	0.554488	0	0.1

Measurement: ic
  step	AVG(ic(q3))	FROM	TO
     1	0.0254774	0	0.1
     2	0.0254758	0	0.1
     3	0.0254743	0	0.1
     4	0.0254727	0	0.1
     5	0.0254711	0	0.1
     6	0.0254694	0	0.1
     7	0.0254677	0	0.1
     8	0.025466	0	0.1
     9	0.0254642	0	0.1
    10	0.0254624	0	0.1
    11	0.0254606	0	0.1
    12	0.0254587	0	0.1
    13	0.0254568	0	0.1
    14	0.0254548	0	0.1
    15	0.0254528	0	0.1
    16	0.0254507	0	0.1
    17	0.0254486	0	0.1
    18	0.0254465	0	0.1
    19	0.0254443	0	0.1
    20	0.025442	0	0.1
    21	0.0254398	0	0.1
    22	0.0254374	0	0.1
    23	0.025435	0	0.1
    24	0.0254325	0	0.1
    25	0.02543	0	0.1
    26	0.0254274	0	0.1
    27	0.0254248	0	0.1
    28	0.0254221	0	0.1
    29	0.0254193	0	0.1
    30	0.0254164	0	0.1
    31	0.0254135	0	0.1
    32	0.0254105	0	0.1
    33	0.0254074	0	0.1
    34	0.0254042	0	0.1
    35	0.025401	0	0.1
    36	0.0253976	0	0.1
    37	0.0253942	0	0.1
    38	0.0253907	0	0.1
    39	0.0253871	0	0.1
    40	0.0253833	0	0.1
    41	0.0253795	0	0.1
    42	0.0253756	0	0.1
    43	0.0253715	0	0.1
    44	0.0253673	0	0.1
    45	0.025363	0	0.1
    46	0.0253586	0	0.1
    47	0.025354	0	0.1
    48	0.0253493	0	0.1
    49	0.0253444	0	0.1
    50	0.0253394	0	0.1
    51	0.0253338	0	0.1
    52	0.0253277	0	0.1
    53	0.0253211	0	0.1
    54	0.0253139	0	0.1
    55	0.0253062	0	0.1
    56	0.0252978	0	0.1
    57	0.0252888	0	0.1
    58	0.0252789	0	0.1
    59	0.025268	0	0.1
    60	0.0252557	0	0.1
    61	0.0252415	0	0.1
    62	0.0252241	0	0.1
    63	0.0251995	0	0.1
    64	0.02513	0	0.1
    65	0.0239132	0	0.1
    66	0.0225945	0	0.1
    67	0.0213009	0	0.1
    68	0.0200324	0	0.1
    69	0.0187895	0	0.1
    70	0.0175724	0	0.1
    71	0.0163817	0	0.1
    72	0.0152181	0	0.1
    73	0.0140824	0	0.1
    74	0.0129758	0	0.1
    75	0.0118994	0	0.1
    76	0.0108548	0	0.1
    77	0.00984391	0	0.1
    78	0.00886877	0	0.1
    79	0.0079319	0	0.1
    80	0.00703613	0	0.1
    81	0.00618469	0	0.1
    82	0.00538116	0	0.1
    83	0.0046294	0	0.1
    84	0.00393342	0	0.1
    85	0.00329716	0	0.1
    86	0.00272411	0	0.1
    87	0.00221685	0	0.1
    88	0.00177656	0	0.1
    89	0.00140251	0	0.1
    90	0.0010918	0	0.1
    91	0.000839436	0	0.1
    92	0.00063877	0	0.1
    93	0.000482198	0	0.1
    94	0.000361952	0	0.1
    95	0.00027075	0	0.1
    96	0.000202205	0	0.1
    97	0.000151005	0	0.1
    98	0.000112899	0	0.1
    99	8.45829e-005	0	0.1
   100	6.35409e-005	0	0.1
   101	4.78859e-005	0	0.1
   102	3.62145e-005	0	0.1
   103	2.74898e-005	0	0.1
   104	2.09473e-005	0	0.1
   105	1.60244e-005	0	0.1
   106	1.23067e-005	0	0.1
   107	9.48872e-006	0	0.1
   108	7.34455e-006	0	0.1
   109	5.70685e-006	0	0.1
   110	4.4512e-006	0	0.1
   111	3.48483e-006	0	0.1
   112	2.7383e-006	0	0.1
   113	2.15945e-006	0	0.1
   114	1.709e-006	0	0.1
   115	1.3572e-006	0	0.1
   116	1.08148e-006	0	0.1
   117	8.64643e-007	0	0.1
   118	6.93533e-007	0	0.1
   119	5.5806e-007	0	0.1
   120	4.50453e-007	0	0.1
   121	3.64707e-007	0	0.1
   122	2.96168e-007	0	0.1
   123	2.41214e-007	0	0.1
   124	1.97021e-007	0	0.1
   125	1.61378e-007	0	0.1
   126	1.32547e-007	0	0.1
   127	1.0916e-007	0	0.1
   128	9.01375e-008	0	0.1
   129	7.46227e-008	0	0.1
   130	6.19353e-008	0	0.1
   131	5.15328e-008	0	0.1
   132	4.29821e-008	0	0.1
   133	3.59358e-008	0	0.1
   134	3.01152e-008	0	0.1
   135	2.5296e-008	0	0.1
   136	2.12948e-008	0	0.1
   137	1.79667e-008	0	0.1
   138	1.51915e-008	0	0.1
   139	1.28724e-008	0	0.1
   140	1.09301e-008	0	0.1
   141	9.29988e-009	0	0.1
   142	7.92871e-009	0	0.1
   143	6.77313e-009	0	0.1
   144	5.79717e-009	0	0.1
   145	4.97131e-009	0	0.1
   146	4.27104e-009	0	0.1
   147	3.67622e-009	0	0.1
   148	3.16994e-009	0	0.1
   149	2.72225e-009	0	0.1
   150	2.36947e-009	0	0.1
   151	2.05388e-009	0	0.1
   152	1.78218e-009	0	0.1
   153	1.55101e-009	0	0.1
   154	1.35112e-009	0	0.1
   155	1.17894e-009	0	0.1
   156	1.03031e-009	0	0.1
   157	9.01828e-010	0	0.1
   158	7.90336e-010	0	0.1
   159	6.94112e-010	0	0.1
   160	6.10325e-010	0	0.1
   161	5.37437e-010	0	0.1
   162	4.73948e-010	0	0.1
   163	4.18562e-010	0	0.1
   164	3.70174e-010	0	0.1
   165	3.27841e-010	0	0.1
   166	2.90752e-010	0	0.1
   167	2.58212e-010	0	0.1
   168	2.29628e-010	0	0.1
   169	2.04486e-010	0	0.1
   170	1.82334e-010	0	0.1
   171	1.62806e-010	0	0.1
   172	1.45448e-010	0	0.1
   173	1.30305e-010	0	0.1
   174	1.16807e-010	0	0.1
   175	1.0484e-010	0	0.1
   176	9.40644e-011	0	0.1
   177	8.47918e-011	0	0.1
   178	7.64053e-011	0	0.1
   179	6.8913e-011	0	0.1
   180	6.22773e-011	0	0.1
   181	5.63317e-011	0	0.1

Measurement: vbe
  step	AVG(v(vb,vo))	FROM	TO
     1	0.716234	0	0.1
     2	0.716229	0	0.1
     3	0.716224	0	0.1
     4	0.716219	0	0.1
     5	0.716214	0	0.1
     6	0.716209	0	0.1
     7	0.716204	0	0.1
     8	0.716198	0	0.1
     9	0.716193	0	0.1
    10	0.716187	0	0.1
    11	0.716182	0	0.1
    12	0.716176	0	0.1
    13	0.716171	0	0.1
    14	0.716165	0	0.1
    15	0.716159	0	0.1
    16	0.716153	0	0.1
    17	0.716147	0	0.1
    18	0.716141	0	0.1
    19	0.716135	0	0.1
    20	0.716128	0	0.1
    21	0.716122	0	0.1
    22	0.716115	0	0.1
    23	0.716109	0	0.1
    24	0.716102	0	0.1
    25	0.716095	0	0.1
    26	0.716088	0	0.1
    27	0.716081	0	0.1
    28	0.716073	0	0.1
    29	0.716066	0	0.1
    30	0.716059	0	0.1
    31	0.716051	0	0.1
    32	0.716043	0	0.1
    33	0.716035	0	0.1
    34	0.716027	0	0.1
    35	0.716019	0	0.1
    36	0.716011	0	0.1
    37	0.716002	0	0.1
    38	0.715993	0	0.1
    39	0.715984	0	0.1
    40	0.715975	0	0.1
    41	0.715966	0	0.1
    42	0.715956	0	0.1
    43	0.715947	0	0.1
    44	0.715937	0	0.1
    45	0.715927	0	0.1
    46	0.715916	0	0.1
    47	0.715906	0	0.1
    48	0.715895	0	0.1
    49	0.715884	0	0.1
    50	0.715873	0	0.1
    51	0.71586	0	0.1
    52	0.715847	0	0.1
    53	0.715834	0	0.1
    54	0.715819	0	0.1
    55	0.715803	0	0.1
    56	0.715787	0	0.1
    57	0.71577	0	0.1
    58	0.715751	0	0.1
    59	0.71573	0	0.1
    60	0.715708	0	0.1
    61	0.715683	0	0.1
    62	0.715653	0	0.1
    63	0.715613	0	0.1
    64	0.715507	0	0.1
    65	0.713706	0	0.1
    66	0.711676	0	0.1
    67	0.709596	0	0.1
    68	0.707462	0	0.1
    69	0.705267	0	0.1
    70	0.703005	0	0.1
    71	0.700669	0	0.1
    72	0.698251	0	0.1
    73	0.695742	0	0.1
    74	0.693132	0	0.1
    75	0.69041	0	0.1
    76	0.687561	0	0.1
    77	0.684573	0	0.1
    78	0.681427	0	0.1
    79	0.678106	0	0.1
    80	0.674587	0	0.1
    81	0.670847	0	0.1
    82	0.666862	0	0.1
    83	0.662603	0	0.1
    84	0.658042	0	0.1
    85	0.653154	0	0.1
    86	0.647915	0	0.1
    87	0.642309	0	0.1
    88	0.636331	0	0.1
    89	0.62999	0	0.1
    90	0.623311	0	0.1
    91	0.616333	0	0.1
    92	0.609108	0	0.1
    93	0.601694	0	0.1
    94	0.594147	0	0.1
    95	0.586523	0	0.1
    96	0.578867	0	0.1
    97	0.571218	0	0.1
    98	0.563604	0	0.1
    99	0.556048	0	0.1
   100	0.548567	0	0.1
   101	0.541171	0	0.1
   102	0.533868	0	0.1
   103	0.526664	0	0.1
   104	0.519561	0	0.1
   105	0.51256	0	0.1
   106	0.505663	0	0.1
   107	0.498869	0	0.1
   108	0.492177	0	0.1
   109	0.485586	0	0.1
   110	0.479094	0	0.1
   111	0.4727	0	0.1
   112	0.466402	0	0.1
   113	0.460199	0	0.1
   114	0.454087	0	0.1
   115	0.448066	0	0.1
   116	0.442134	0	0.1
   117	0.436289	0	0.1
   118	0.430528	0	0.1
   119	0.424851	0	0.1
   120	0.419255	0	0.1
   121	0.413739	0	0.1
   122	0.408301	0	0.1
   123	0.40294	0	0.1
   124	0.397653	0	0.1
   125	0.39244	0	0.1
   126	0.387299	0	0.1
   127	0.382228	0	0.1
   128	0.377226	0	0.1
   129	0.372292	0	0.1
   130	0.367424	0	0.1
   131	0.36262	0	0.1
   132	0.357881	0	0.1
   133	0.353203	0	0.1
   134	0.348587	0	0.1
   135	0.344031	0	0.1
   136	0.339533	0	0.1
   137	0.335094	0	0.1
   138	0.33071	0	0.1
   139	0.326383	0	0.1
   140	0.322109	0	0.1
   141	0.317889	0	0.1
   142	0.313722	0	0.1
   143	0.309606	0	0.1
   144	0.30554	0	0.1
   145	0.301524	0	0.1
   146	0.297557	0	0.1
   147	0.293638	0	0.1
   148	0.289765	0	0.1
   149	0.285939	0	0.1
   150	0.282158	0	0.1
   151	0.278421	0	0.1
   152	0.274728	0	0.1
   153	0.271078	0	0.1
   154	0.26747	0	0.1
   155	0.263904	0	0.1
   156	0.260378	0	0.1
   157	0.256893	0	0.1
   158	0.253446	0	0.1
   159	0.250039	0	0.1
   160	0.24667	0	0.1
   161	0.243338	0	0.1
   162	0.240043	0	0.1
   163	0.236784	0	0.1
   164	0.23356	0	0.1
   165	0.230372	0	0.1
   166	0.227218	0	0.1
   167	0.224098	0	0.1
   168	0.221012	0	0.1
   169	0.217958	0	0.1
   170	0.214937	0	0.1
   171	0.211947	0	0.1
   172	0.208989	0	0.1
   173	0.206062	0	0.1
   174	0.203165	0	0.1
   175	0.200297	0	0.1
   176	0.19746	0	0.1
   177	0.194651	0	0.1
   178	0.19187	0	0.1
   179	0.189118	0	0.1
   180	0.186393	0	0.1
   181	0.183696	0	0.1

Measurement: vce
  step	AVG(v(comp,vo))	FROM	TO
     1	2.366	0	0.1
     2	2.3708	0	0.1
     3	2.37564	0	0.1
     4	2.38051	0	0.1
     5	2.38543	0	0.1
     6	2.39038	0	0.1
     7	2.39537	0	0.1
     8	2.4004	0	0.1
     9	2.40548	0	0.1
    10	2.41059	0	0.1
    11	2.41574	0	0.1
    12	2.42094	0	0.1
    13	2.42618	0	0.1
    14	2.43146	0	0.1
    15	2.43679	0	0.1
    16	2.44216	0	0.1
    17	2.44757	0	0.1
    18	2.45304	0	0.1
    19	2.45854	0	0.1
    20	2.4641	0	0.1
    21	2.4697	0	0.1
    22	2.47535	0	0.1
    23	2.48104	0	0.1
    24	2.48679	0	0.1
    25	2.49259	0	0.1
    26	2.49844	0	0.1
    27	2.50434	0	0.1
    28	2.51029	0	0.1
    29	2.51629	0	0.1
    30	2.52235	0	0.1
    31	2.52847	0	0.1
    32	2.53464	0	0.1
    33	2.54086	0	0.1
    34	2.54714	0	0.1
    35	2.55348	0	0.1
    36	2.55988	0	0.1
    37	2.56634	0	0.1
    38	2.57286	0	0.1
    39	2.57944	0	0.1
    40	2.58608	0	0.1
    41	2.59279	0	0.1
    42	2.59956	0	0.1
    43	2.60639	0	0.1
    44	2.6133	0	0.1
    45	2.62027	0	0.1
    46	2.6273	0	0.1
    47	2.63441	0	0.1
    48	2.64159	0	0.1
    49	2.64884	0	0.1
    50	2.65616	0	0.1
    51	2.66355	0	0.1
    52	2.67101	0	0.1
    53	2.67854	0	0.1
    54	2.68614	0	0.1
    55	2.69382	0	0.1
    56	2.70156	0	0.1
    57	2.70938	0	0.1
    58	2.71727	0	0.1
    59	2.72522	0	0.1
    60	2.73325	0	0.1
    61	2.74132	0	0.1
    62	2.74943	0	0.1
    63	2.75749	0	0.1
    64	2.76477	0	0.1
    65	2.74977	0	0.1
    66	2.73272	0	0.1
    67	2.71607	0	0.1
    68	2.6998	0	0.1
    69	2.6839	0	0.1
    70	2.66836	0	0.1
    71	2.65316	0	0.1
    72	2.63829	0	0.1
    73	2.62374	0	0.1
    74	2.60949	0	0.1
    75	2.59554	0	0.1
    76	2.58186	0	0.1
    77	2.56845	0	0.1
    78	2.5553	0	0.1
    79	2.54239	0	0.1
    80	2.52971	0	0.1
    81	2.51725	0	0.1
    82	2.50499	0	0.1
    83	2.49293	0	0.1
    84	2.48105	0	0.1
    85	2.46934	0	0.1
    86	2.45779	0	0.1
    87	2.44639	0	0.1
    88	2.43513	0	0.1
    89	2.424	0	0.1
    90	2.41301	0	0.1
    91	2.40215	0	0.1
    92	2.39142	0	0.1
    93	2.38084	0	0.1
    94	2.3704	0	0.1
    95	2.36011	0	0.1
    96	2.34996	0	0.1
    97	2.33997	0	0.1
    98	2.33013	0	0.1
    99	2.32045	0	0.1
   100	2.31092	0	0.1
   101	2.30153	0	0.1
   102	2.2923	0	0.1
   103	2.28321	0	0.1
   104	2.27426	0	0.1
   105	2.26546	0	0.1
   106	2.25679	0	0.1
   107	2.24825	0	0.1
   108	2.23985	0	0.1
   109	2.23157	0	0.1
   110	2.22342	0	0.1
   111	2.21539	0	0.1
   112	2.20748	0	0.1
   113	2.19969	0	0.1
   114	2.19201	0	0.1
   115	2.18445	0	0.1
   116	2.17699	0	0.1
   117	2.16964	0	0.1
   118	2.1624	0	0.1
   119	2.15526	0	0.1
   120	2.14822	0	0.1
   121	2.14128	0	0.1
   122	2.13443	0	0.1
   123	2.12768	0	0.1
   124	2.12102	0	0.1
   125	2.11445	0	0.1
   126	2.10797	0	0.1
   127	2.10158	0	0.1
   128	2.09527	0	0.1
   129	2.08905	0	0.1
   130	2.0829	0	0.1
   131	2.07684	0	0.1
   132	2.07085	0	0.1
   133	2.06494	0	0.1
   134	2.05911	0	0.1
   135	2.05335	0	0.1
   136	2.04766	0	0.1
   137	2.04205	0	0.1
   138	2.0365	0	0.1
   139	2.03102	0	0.1
   140	2.02561	0	0.1
   141	2.02027	0	0.1
   142	2.01499	0	0.1
   143	2.00977	0	0.1
   144	2.00461	0	0.1
   145	1.99952	0	0.1
   146	1.99449	0	0.1
   147	1.98951	0	0.1
   148	1.98459	0	0.1
   149	1.97973	0	0.1
   150	1.97493	0	0.1
   151	1.97018	0	0.1
   152	1.96548	0	0.1
   153	1.96084	0	0.1
   154	1.95625	0	0.1
   155	1.95171	0	0.1
   156	1.94722	0	0.1
   157	1.94278	0	0.1
   158	1.93839	0	0.1
   159	1.93405	0	0.1
   160	1.92975	0	0.1
   161	1.92551	0	0.1
   162	1.9213	0	0.1
   163	1.91714	0	0.1
   164	1.91303	0	0.1
   165	1.90895	0	0.1
   166	1.90492	0	0.1
   167	1.90094	0	0.1
   168	1.89699	0	0.1
   169	1.89308	0	0.1
   170	1.88922	0	0.1
   171	1.88539	0	0.1
   172	1.8816	0	0.1
   173	1.87786	0	0.1
   174	1.87414	0	0.1
   175	1.87047	0	0.1
   176	1.86683	0	0.1
   177	1.86323	0	0.1
   178	1.85966	0	0.1
   179	1.85613	0	0.1
   180	1.85263	0	0.1
   181	1.84916	0	0.1


Date: Mon Apr 11 19:34:10 2022
Total elapsed time: 14.401 seconds.

tnom = 27
temp = 27
method = modified trap
totiter = 4216
traniter = 2406
tranpoints = 1204
accept = 1204
rejected = 0
matrix size = 43
fillins = 89
solver = Normal
Matrix Compiler1: 6.27 KB object code size  1.0/0.5/[0.3]
Matrix Compiler2: off  [0.4]/0.6/0.4

