<<<<<<< HEAD:TP1 - Fuente de tension regulada/Fuente_regulada_V2/Simulaci贸n/Fuente regulada.log
.STEP increment has wrong sign -- fixing...
Circuit: * D:\Electronica\Electronica 2\TP1\TPs-Electronica2\Fuente_regulada_V2\Simulacin\Fuente regulada.asc
=======
Circuit: * C:\Fran\ITBA\Electronica 2\TPs-E2\Fuente_regulada_V2\Simulacin\Fuente regulada.asc
>>>>>>> b2c4317ae4761eb96a76f00ae03ddb8047c4929e:Fuente_regulada_V2/Simulaci贸n/Fuente regulada.log

Direct Newton iteration failed to find .op point.  (Use ".option noopiter" to skip.)
Starting Gmin stepping
Increasing initial diagonal Gmin to 100
Gmin = 100
vernier = 0.5
vernier = 0.25
Gmin = 30.8405
vernier = 0.125
vernier = 0.0625
vernier = 0.03125
vernier = 0.015625
Gmin = 29.7895
vernier = 0.0078125
vernier = 0.00390625
vernier = 0.00195313
vernier = 0.000976563
Gmin = 29.8549
vernier = 0.000488281
Gmin = 0
Gmin stepping succeeded in finding the operating point.


<<<<<<< HEAD:TP1 - Fuente de tension regulada/Fuente_regulada_V2/Simulaci贸n/Fuente regulada.log

Date: Sat May 28 02:47:06 2022
Total elapsed time: 3.031 seconds.
=======
Date: Thu Apr 28 11:16:11 2022
Total elapsed time: 0.731 seconds.
>>>>>>> b2c4317ae4761eb96a76f00ae03ddb8047c4929e:Fuente_regulada_V2/Simulaci贸n/Fuente regulada.log

tnom = 27
temp = 27
method = modified trap
totiter = 41563
traniter = 40034
tranpoints = 20018
accept = 20018
rejected = 0
matrix size = 43
fillins = 75
solver = Normal
<<<<<<< HEAD:TP1 - Fuente de tension regulada/Fuente_regulada_V2/Simulaci贸n/Fuente regulada.log
Matrix Compiler1: 6.15 KB object code size
Matrix Compiler2: 5.27 KB object code size  0.5/0.8/[0.3]
=======
Matrix Compiler1: 6.24 KB object code size  0.8/0.4/[0.3]
Matrix Compiler2: 5.12 KB object code size  0.4/0.5/[0.4]
>>>>>>> b2c4317ae4761eb96a76f00ae03ddb8047c4929e:Fuente_regulada_V2/Simulaci贸n/Fuente regulada.log

